Circuit: * projekt 4: wtornik darlingtona npn op ac tr(SR trapezowy)

Direct Newton iteration for .op point succeeded.

Date: Mon Nov 25 19:18:21 2019
Total elapsed time: 0.063 seconds.

tnom = 27
temp = 27
method = modified trap
totiter = 2098
traniter = 2082
tranpoints = 1042
accept = 1042
rejected = 0
matrix size = 9
fillins = 0
solver = Normal
Matrix Compiler1: 386 bytes object code size  0.3/0.2/[0.1]
Matrix Compiler2: off  [0.1]/0.2/0.3

